Infrared Spectrum: ETHYL BENZENE
Formula: C8 H10
CAS: 100-41-4
State: LIQUID (NEAT)
Class: COBLENTZ
Instrument: PERKIN-ELMER
Sampling: TRANSMISSION
Path length: 0.0024 CM
Resolution: 4
Origin: STANDARD OIL OF OHIO
1/CM	TRANSMITTANCE
589.426	0.62
597.851	0.5931
606.275	0.571
614.7	0.571
623.124	0.573
631.549	0.5819
639.974	0.598
648.398	0.6168
656.823	0.6418
665.247	0.6538
673.672	0.6511
682.097	0.6301
690.521	0.4475
698.946	0.1201
707.371	0.0487
715.795	0.2297
724.22	0.2637
732.644	0.245
741.069	0.214
749.494	0.1265
757.918	0.1352
766.343	0.3698
774.767	0.4551
783.192	0.343
791.617	0.463
800.041	0.4956
808.466	0.6708
816.89	0.7725
825.315	0.8236
833.74	0.8398
842.164	0.8354
850.589	0.8236
859.013	0.8483
867.438	0.8655
875.863	0.868
884.287	0.8618
892.712	0.8433
901.136	0.8154
909.561	0.6202
917.986	0.7367
926.41	0.8506
934.835	0.866
943.26	0.866
951.684	0.8576
960.109	0.8301
968.533	0.7341
976.958	0.7074
985.383	0.7946
993.807	0.8253
1002.23	0.834
1010.66	0.8207
1019.08	0.8148
1027.51	0.766
1035.93	0.4749
1044.35	0.499
1052.78	0.6786
1061.2	0.7178
1069.63	0.6568
1078.05	0.7366
1086.48	0.7714
1094.9	0.6605
1103.33	0.7665
1111.75	0.7804
1120.18	0.8022
1128.6	0.8506
1137.03	0.8549
1145.45	0.847
1153.87	0.8303
1162.3	0.8086
1170.72	0.828
1179.15	0.8025
1187.57	0.793
1196	0.8309
1204.42	0.851
1212.85	0.863
1221.27	0.866
1229.7	0.8671
1238.12	0.8581
1246.55	0.8457
1254.97	0.8479
1263.39	0.849
1271.82	0.8481
1280.24	0.8396
1288.67	0.8238
1297.09	0.8068
1305.52	0.7798
1313.94	0.7652
1322.37	0.7482
1330.79	0.7378
1339.22	0.7697
1347.64	0.8011
1356.07	0.815
1364.49	0.7921
1372.91	0.6884
1381.34	0.6537
1389.76	0.7223
1398.19	0.7685
1406.61	0.78
1415.04	0.7701
1423.46	0.7296
1431.89	0.6764
1440.31	0.6917
1448.74	0.5586
1457.16	0.2206
1465.59	0.254
1474.01	0.4108
1482.43	0.6545
1490.86	0.6728
1499.28	0.2304
1507.71	0.3049
1516.13	0.8072
1524.56	0.8326
1532.98	0.851
1541.41	0.8486
1549.83	0.8544
1558.26	0.864
1566.68	0.8644
1575.11	0.8651
1583.53	0.8454
1591.95	0.7657
1600.38	0.7369
1608.8	0.579
1617.23	0.4857
1625.65	0.8308
1634.08	0.8742
1642.5	0.879
1650.93	0.879
1659.35	0.878
1667.78	0.881
1676.2	0.891
1684.63	0.8912
1693.05	0.898
1701.47	0.893
1709.9	0.9
1718.32	0.9
1726.75	0.9
1735.17	0.8979
1743.6	0.8539
1752.02	0.824
1760.45	0.8692
1768.87	0.9
1777.3	0.9
1785.72	0.895
1794.14	0.896
1802.57	0.8573
1810.99	0.7742
1819.42	0.8213
1827.84	0.8619
1836.27	0.8897
1844.69	0.905
1853.12	0.9001
1861.54	0.8815
1869.97	0.8189
1878.39	0.7722
1886.82	0.832
1895.24	0.8261
1903.66	0.8902
1912.09	0.9
1920.51	0.9
1928.94	0.8915
1937.36	0.8669
1945.79	0.7945
1954.21	0.7455
1962.64	0.8165
1971.06	0.8287
1979.49	0.8774
1987.91	0.898
1996.34	0.898
2004.76	0.9043
2013.18	0.912
2021.61	0.912
2030.03	0.91
2038.46	0.91
2046.88	0.91
2055.31	0.913
2063.73	0.917
2072.16	0.917
2080.58	0.915
2089.01	0.917
2097.43	0.917
2105.86	0.9154
2114.28	0.915
2122.7	0.915
2131.13	0.913
2139.55	0.913
2147.98	0.913
2156.4	0.913
2164.83	0.913
2173.25	0.9128
2181.68	0.913
2190.1	0.913
2198.53	0.9128
2206.95	0.912
2215.38	0.9084
2223.8	0.906
2232.22	0.905
2240.65	0.906
2249.07	0.908
2257.5	0.908
2265.92	0.91
2274.35	0.906
2282.77	0.905
2291.2	0.905
2299.62	0.9026
2308.05	0.906
2316.47	0.9017
2324.9	0.8976
2333.32	0.898
2341.74	0.893
2350.17	0.8975
2358.59	0.9
2367.02	0.9
2375.44	0.905
2383.87	0.9058
2392.29	0.91
2400.72	0.91
2409.14	0.91
2417.57	0.905
2425.99	0.906
2434.42	0.905
2442.84	0.905
2451.26	0.9116
2459.69	0.912
2468.11	0.912
2476.54	0.912
2484.96	0.91
2493.39	0.91
2501.81	0.9055
2510.24	0.906
2518.66	0.906
2527.09	0.906
2535.51	0.9014
2543.94	0.901
2552.36	0.9058
2560.78	0.9076
2569.21	0.908
2577.63	0.908
2586.06	0.9014
2594.48	0.9008
2602.91	0.901
2611.33	0.8939
2619.76	0.8926
2628.18	0.8914
2636.61	0.8815
2645.03	0.8826
2653.45	0.8976
2661.88	0.9
2670.3	0.9
2678.73	0.9
2687.15	0.9
2695.58	0.8984
2704	0.9
2712.43	0.898
2720.85	0.896
2729.28	0.8851
2737.7	0.876
2746.13	0.8826
2754.55	0.884
2762.97	0.881
2771.4	0.8715
2779.82	0.8612
2788.25	0.847
2796.67	0.844
2805.1	0.8424
2813.52	0.8342
2821.95	0.8233
2830.37	0.7987
2838.8	0.7536
2847.22	0.7124
2855.65	0.6273
2864.07	0.4853
2872.49	0.3459
2880.92	0.2619
2889.34	0.206
2897.77	0.3539
2906.19	0.3206
2914.62	0.3479
2923.04	0.3302
2931.47	0.2552
2939.89	0.1255
2948.32	0.1104
2956.74	0.2473
2965.17	0.2042
2973.59	0.0272
2982.01	0.0221
2990.44	0.162
2998.86	0.368
3007.29	0.4813
3015.71	0.468
3024.14	0.4541
3032.56	0.2421
3040.99	0.076
3049.41	0.2762
3057.84	0.4843
3066.26	0.454
3074.69	0.2812
3083.11	0.4081
3091.53	0.4615
3099.96	0.4373
3108.38	0.6722
3116.81	0.6851
3125.23	0.7723
3133.66	0.8381
3142.08	0.8586
3150.51	0.866
3158.93	0.866
3167.36	0.866
3175.78	0.8676
3184.21	0.871
3192.63	0.874
3201.05	0.879
3209.48	0.8826
3217.9	0.8876
3226.33	0.896
3234.75	0.898
3243.18	0.898
3251.6	0.898
3260.03	0.898
3268.45	0.9
3276.88	0.9
3285.3	0.901
3293.73	0.901
3302.15	0.9014
3310.57	0.901
3319	0.9
3327.42	0.9
3335.85	0.9
3344.27	0.9
3352.7	0.9
3361.12	0.9
3369.55	0.9
3377.97	0.9
3386.4	0.9
3394.82	0.9
3403.25	0.9
3411.67	0.898
3420.09	0.896
3428.52	0.896
3436.94	0.8952
3445.37	0.896
3453.79	0.896
3462.22	0.895
3470.64	0.895
3479.07	0.8914
3487.49	0.89
3495.92	0.888
3504.34	0.8864
3512.76	0.886
3521.19	0.886
3529.61	0.8876
3538.04	0.8896
3546.46	0.895
3554.89	0.896
3563.31	0.896
3571.74	0.893
3580.16	0.8914
3588.59	0.888
3597.01	0.89
3605.44	0.89
3613.86	0.89
3622.28	0.89
3630.71	0.888
3639.13	0.888
3647.56	0.8864
3655.98	0.886
3664.41	0.8876
3672.83	0.886
3681.26	0.8876
3689.68	0.886
3698.11	0.886
3706.53	0.886
3714.96	0.8876
3723.38	0.888
3731.8	0.888
3740.23	0.888
3748.65	0.888
3757.08	0.886
3765.5	0.8876
3773.93	0.888
3782.35	0.886
3790.78	0.886
3799.2	0.884
3807.63	0.879
3816.05	0.884
3824.48	0.884
3832.9	0.884
3841.32	0.8856
3849.75	0.884
3858.17	0.886
3866.6	0.884
3875.02	0.884
3883.45	0.883
3891.87	0.883
3900.3	0.881
3908.72	0.881
3917.15	0.881
3925.57	0.878
3934	0.8788
3942.42	0.879
